/*--------------------------------*- C++ -*----------------------------------*\
  =========                 |
  \\      /  F ield         | OpenFOAM: The Open Source CFD Toolbox
   \\    /   O peration     | Website:  https://openfoam.org
    \\  /    A nd           | Version:  7
     \\/     M anipulation  |
\*---------------------------------------------------------------------------*/
FoamFile
{
    version     2.0;
    format      binary;
    class       polyBoundaryMesh;
    location    "constant/fluid/polyMesh";
    object      boundary;
}
// * * * * * * * * * * * * * * * * * * * * * * * * * * * * * * * * * * * * * //

5
(
    inlet_fluid
    {
        type            patch;
        nFaces          172;
        startFace       393805;
    }
    outlet_fluid
    {
        type            patch;
        nFaces          0;
        startFace       393977;
    }
    walls_fluid
    {
        type            patch;
        nFaces          2952;
        startFace       393977;
    }
    fluid_to_fins
    {
        type            mappedWall;
        inGroups        List<word> 
2
(
wall
mappedPatch
)
;
        nFaces          17604;
        startFace       396929;
        sampleMode      nearestPatchFace;
        sampleRegion    fins;
        samplePatch     fins_to_fluid;
    }
    procBoundary1to0
    {
        type            processor;
        inGroups        List<word> 1(processor);
        nFaces          2638;
        startFace       414533;
        matchTolerance  0.0001;
        transform       unknown;
        myProcNo        1;
        neighbProcNo    0;
    }
)

// ************************************************************************* //
